# generated using pymatgen
data_ZnH6C7N3O2
_symmetry_space_group_name_H-M   'P 1'
_cell_length_a   8.91379961
_cell_length_b   9.69348932
_cell_length_c   9.48360974
_cell_angle_alpha   90.00000000
_cell_angle_beta   115.89494442
_cell_angle_gamma   90.00000000
_symmetry_Int_Tables_number   1
_chemical_formula_structural   ZnH6C7N3O2
_chemical_formula_sum   'Zn4 H24 C28 N12 O8'
_cell_volume   737.16438628
_cell_formula_units_Z   4
loop_
 _symmetry_equiv_pos_site_id
 _symmetry_equiv_pos_as_xyz
  1  'x, y, z'
loop_
 _atom_site_type_symbol
 _atom_site_label
 _atom_site_symmetry_multiplicity
 _atom_site_fract_x
 _atom_site_fract_y
 _atom_site_fract_z
 _atom_site_occupancy
  Zn  Zn0  1  0.17587948  0.05771005  0.43678930  1
  Zn  Zn1  1  0.82411991  0.55771060  0.06320990  1
  Zn  Zn2  1  0.82411929  0.94229099  0.56320909  1
  Zn  Zn3  1  0.17587896  0.44229044  0.93678855  1
  N  N4  1  0.03079957  0.88920092  0.36829942  1
  N  N5  1  0.96919982  0.38920043  0.13169977  1
  N  N6  1  0.96919923  0.11080012  0.63169902  1
  N  N7  1  0.03079902  0.61080061  0.86829862  1
  N  N8  1  0.90779951  0.85250087  0.40999934  1
  N  N9  1  0.09219988  0.35250038  0.08999986  1
  N  N10  1  0.09219933  0.14750017  0.58999905  1
  N  N11  1  0.90779892  0.64750066  0.90999859  1
  N  N12  1  0.90079972  0.70860076  0.22589965  1
  N  N13  1  0.09919966  0.20860021  0.27409954  1
  N  N14  1  0.09919914  0.29140028  0.77409880  1
  N  N15  1  0.90079911  0.79140083  0.72589884  1
  O  O16  1  0.40979928  0.07610006  0.61019903  1
  O  O17  1  0.59019897  0.57610061  0.88979862  1
  O  O18  1  0.59019955  0.92390097  0.38979936  1
  O  O19  1  0.40979984  0.42390043  0.11019983  1
  O  O20  1  0.67529922  0.03070001  0.67319896  1
  O  O21  1  0.32469903  0.53070056  0.82679868  1
  O  O22  1  0.32469964  0.96930097  0.32679949  1
  O  O23  1  0.67529974  0.46930048  0.17319971  1
  C  C24  1  0.02149968  0.80170084  0.25879956  1
  C  C25  1  0.97849970  0.30170029  0.24119963  1
  C  C26  1  0.97849909  0.19830020  0.74119882  1
  C  C27  1  0.02149916  0.69830075  0.75879882  1
  H  H28  1  0.10514795  0.80711632  0.20341560  1
  H  H29  1  0.89485146  0.30711583  0.29658366  1
  H  H30  1  0.89485085  0.19288472  0.79658285  1
  H  H31  1  0.10514740  0.69288521  0.70341479  1
  C  C32  1  0.83449962  0.74460079  0.32319951  1
  C  C33  1  0.16549979  0.24460024  0.17679975  1
  C  C34  1  0.16549924  0.25540025  0.67679894  1
  C  C35  1  0.83449901  0.75540080  0.82319870  1
  H  H36  1  0.73075216  0.69074906  0.32953047  1
  H  H37  1  0.26924722  0.19074852  0.17046873  1
  H  H38  1  0.26924667  0.30925197  0.67046792  1
  H  H39  1  0.73075158  0.80925252  0.82952972  1
  C  C40  1  0.52479933  0.03080002  0.58149908  1
  C  C41  1  0.47519892  0.53080057  0.91849857  1
  C  C42  1  0.47519950  0.96920102  0.41849931  1
  C  C43  1  0.52479989  0.46920047  0.08149988  1
  C  C44  1  0.54968774  0.06211494  0.95078305  1
  C  C45  1  0.56697893  0.03019275  1.08046695  1
  H  H46  1  0.53439268  0.09035198  0.83607009  1
  H  H47  1  0.58227399  0.00195572  1.19517991  1
  C  C48  1  0.55000000  0.43091267  0.45370772  1
  C  C49  1  0.55000000  0.46139502  0.57754228  1
  H  H50  1  0.55000000  0.40394925  0.34416883  1
  H  H51  1  0.55000000  0.48835844  0.68708117  1
  C  C52  1  0.44603904  0.93333923  0.03571685  1
  C  C53  1  0.55396096  1.02050693  0.07365815  1
  H  H54  1  0.35057583  0.85623432  0.00215557  1
  H  H55  1  0.64942417  1.09761183  0.10721943  1
  C  C56  1  0.43709955  0.55086629  0.53276321  1
  C  C57  1  0.54623379  0.46451832  0.57661179  1
  H  H58  1  0.34056396  0.62724610  0.49397659  1
  H  H59  1  0.64276938  0.38813851  0.61539841  1
  C  C60  1  0.53729429  0.05127616  0.94865815  1
  C  C61  1  0.42937238  -0.03589154  0.91071685  1
  H  H62  1  0.63275750  0.12838106  0.98221943  1
  H  H63  1  0.33390916  -0.11299645  0.87715557  1
  C  C64  1  0.54623379  0.43374909  0.45161179  1
  C  C65  1  0.43709955  0.52009706  0.40776321  1
  H  H66  1  0.64276938  0.35736928  0.49039841  1
  H  H67  1  0.34056396  0.59647687  0.36897659  1
  C  C68  1  0.43333333  0.55370272  0.53066728  1
  C  C69  1  0.43333333  0.52322036  0.40683272  1
  H  H70  1  0.43333333  0.58066613  0.64020617  1
  H  H71  1  0.43333333  0.49625694  0.29729383  1
  C  C72  1  0.43364559  0.92250044  0.03359195  1
  C  C73  1  0.41635441  0.95442263  -0.09609195  1
  H  H74  1  0.44894065  0.89426341  0.14830491  1
  H  H75  1  0.40105935  0.98265967  -0.21080491  1
