# generated using pymatgen
data_CaH8C14SXeO6
_symmetry_space_group_name_H-M   'P 1'
_cell_length_a   11.61935000
_cell_length_b   5.56672000
_cell_length_c   22.93121000
_cell_angle_alpha   90.00000000
_cell_angle_beta   100.89740000
_cell_angle_gamma   90.00000000
_symmetry_Int_Tables_number   1
_chemical_formula_structural   CaH8C14SXeO6
_chemical_formula_sum   'Ca4 H32 C56 S4 Xe4 O24'
_cell_volume   1456.48227975
_cell_formula_units_Z   4
loop_
 _symmetry_equiv_pos_site_id
 _symmetry_equiv_pos_as_xyz
  1  'x, y, z'
loop_
 _atom_site_type_symbol
 _atom_site_label
 _atom_site_symmetry_multiplicity
 _atom_site_fract_x
 _atom_site_fract_y
 _atom_site_fract_z
 _atom_site_occupancy
  C  C0  1  0.49325000  0.25869000  0.26202000  1
  C  C1  1  0.00675000  0.75869000  0.23798000  1
  C  C2  1  0.50675000  0.74131000  0.73798000  1
  C  C3  1  0.99325000  0.24131000  0.76202000  1
  C  C4  1  0.39985000  0.21111000  0.29912000  1
  C  C5  1  0.10015000  0.71111000  0.20088000  1
  C  C6  1  0.60015000  0.78889000  0.70088000  1
  C  C7  1  0.89985000  0.28889000  0.79912000  1
  C  C8  1  0.31215000  0.37891000  0.30012000  1
  C  C9  1  0.18785000  0.87891000  0.19988000  1
  C  C10  1  0.68785000  0.62109000  0.69988000  1
  C  C11  1  0.81215000  0.12109000  0.80012000  1
  H  H12  1  0.31420000  0.52870000  0.28040000  1
  H  H13  1  0.18580000  0.02870000  0.21960000  1
  H  H14  1  0.68580000  0.47130000  0.71960000  1
  H  H15  1  0.81420000  0.97130000  0.78040000  1
  C  C16  1  0.22085000  0.32821100  0.32992000  1
  C  C17  1  0.27915000  0.82821100  0.17008000  1
  C  C18  1  0.77915000  0.67178900  0.67008000  1
  C  C19  1  0.72085000  0.17178900  0.82992000  1
  H  H20  1  0.15970000  0.44130000  0.33040000  1
  H  H21  1  0.34030000  0.94130000  0.16960000  1
  H  H22  1  0.84030000  0.55870000  0.66960000  1
  H  H23  1  0.65970000  0.05870000  0.83040000  1
  C  C24  1  0.22095000  0.10961000  0.35892000  1
  C  C25  1  0.27905000  0.60961000  0.14108000  1
  C  C26  1  0.77905000  0.89039000  0.64108000  1
  C  C27  1  0.72095000  0.39039000  0.85892000  1
  C  C28  1  0.31095000  0.94129000  0.36032000  1
  C  C29  1  0.18905000  0.44129000  0.13968000  1
  C  C30  1  0.68905000  0.05871000  0.63968000  1
  C  C31  1  0.81095000  0.55871000  0.86032000  1
  H  H32  1  0.31100000  0.79580000  0.38200000  1
  H  H33  1  0.18900000  0.29580000  0.11800000  1
  H  H34  1  0.68900000  0.20420000  0.61800000  1
  H  H35  1  0.81100000  0.70420000  0.88200000  1
  C  C36  1  0.40025000  0.99119000  0.32932000  1
  C  C37  1  0.09975000  0.49119000  0.17068000  1
  C  C38  1  0.59975000  0.00881000  0.67068000  1
  C  C39  1  0.90025000  0.50881000  0.82932000  1
  H  H40  1  0.46090000  0.87770000  0.32860000  1
  H  H41  1  0.03910000  0.37770000  0.17140000  1
  H  H42  1  0.53910000  0.12230000  0.67140000  1
  H  H43  1  0.96090000  0.62230000  0.82860000  1
  C  C44  1  0.14904000  0.11191000  0.47022000  1
  C  C45  1  0.35096000  0.61191000  0.02978000  1
  C  C46  1  0.85096000  0.88809000  0.52978000  1
  C  C47  1  0.64904000  0.38809000  0.97022000  1
  C  C48  1  0.11945000  0.33401000  0.49012000  1
  C  C49  1  0.38055000  0.83401000  0.00988000  1
  C  C50  1  0.88055000  0.66599000  0.50988000  1
  C  C51  1  0.61945000  0.16599000  0.99012000  1
  H  H52  1  0.08030000  0.45020000  0.46300000  1
  H  H53  1  0.41970000  0.95020000  0.03700000  1
  H  H54  1  0.91970000  0.54980000  0.53700000  1
  H  H55  1  0.58030000  0.04980000  0.96300000  1
  C  C56  1  0.14825000  0.38371000  0.55082000  1
  C  C57  1  0.35175000  0.88371000  0.94918000  1
  C  C58  1  0.85175000  0.61629000  0.44918000  1
  C  C59  1  0.64825000  0.11629000  0.05082000  1
  H  H60  1  0.12980000  0.53610000  0.56520000  1
  H  H61  1  0.37020000  0.03610000  0.93480000  1
  H  H62  1  0.87020000  0.46390000  0.43480000  1
  H  H63  1  0.62980000  0.96390000  0.06520000  1
  C  C64  1  0.20365000  0.21141000  0.59002000  1
  C  C65  1  0.29635000  0.71141000  0.90998000  1
  C  C66  1  0.79635000  0.78859000  0.40998000  1
  C  C67  1  0.70365000  0.28859000  0.09002000  1
  C  C68  1  0.23675000  0.99049000  0.56932000  1
  C  C69  1  0.26325000  0.49049000  0.93068000  1
  C  C70  1  0.76325000  0.00951000  0.43068000  1
  C  C71  1  0.73675000  0.50951000  0.06932000  1
  H  H72  1  0.27750000  0.87590000  0.59620000  1
  H  H73  1  0.22250000  0.37590000  0.90380000  1
  H  H74  1  0.72250000  0.12410000  0.40380000  1
  H  H75  1  0.77750000  0.62410000  0.09620000  1
  C  C76  1  0.20955000  0.93979000  0.50882000  1
  C  C77  1  0.29045000  0.43979000  0.99118000  1
  C  C78  1  0.79045000  0.06021000  0.49118000  1
  C  C79  1  0.70955000  0.56021000  0.00882000  1
  H  H80  1  0.23170000  0.79100000  0.49390000  1
  H  H81  1  0.26830000  0.29100000  0.00610000  1
  H  H82  1  0.76830000  0.20900000  0.50610000  1
  H  H83  1  0.73170000  0.70900000  0.99390000  1
  C  C84  1  0.22754000  0.26249000  0.65572000  1
  C  C85  1  0.27246000  0.76249000  0.84428000  1
  C  C86  1  0.77246000  0.73751000  0.34428000  1
  C  C87  1  0.72754000  0.23751000  0.15572000  1
  O  O88  1  0.51243000  0.47557000  0.25221160  1
  O  O89  1  0.98757000  0.97557000  0.24778840  1
  O  O90  1  0.48757000  0.52443000  0.74778840  1
  O  O91  1  0.01243000  0.02443000  0.75221160  1
  O  O92  1  0.54093000  0.08087000  0.24372160  1
  O  O93  1  0.95907000  0.58087000  0.25627840  1
  O  O94  1  0.45907000  0.91913000  0.75627840  1
  O  O95  1  0.04093000  0.41913000  0.74372160  1
  O  O96  1  0.00543000  0.19587000  0.37124150  1
  O  O97  1  0.49457000  0.69587000  0.12875850  1
  O  O98  1  0.99457000  0.80413000  0.62875850  1
  O  O99  1  0.50543000  0.30413000  0.87124150  1
  O  O100  1  0.08663000  0.77953000  0.39054160  1
  O  O101  1  0.41337000  0.27953000  0.10945840  1
  O  O102  1  0.91337000  0.22047000  0.60945840  1
  O  O103  1  0.58663000  0.72047000  0.89054160  1
  O  O104  1  0.23713000  0.47687000  0.67265160  1
  O  O105  1  0.26287000  0.97687000  0.82734840  1
  O  O106  1  0.76287000  0.52313000  0.32734840  1
  O  O107  1  0.73713000  0.02313000  0.17265160  1
  O  O108  1  0.24063000  0.08507000  0.69066160  1
  O  O109  1  0.25937000  0.58507000  0.80933840  1
  O  O110  1  0.75937000  0.91493000  0.30933840  1
  O  O111  1  0.74063000  0.41493000  0.19066160  1
  S  S112  1  0.10323110  0.03642000  0.39414500  1
  S  S113  1  0.39676890  0.53642000  0.10585500  1
  S  S114  1  0.89676890  0.96358000  0.60585500  1
  S  S115  1  0.60323110  0.46358000  0.89414500  1
  Ca  Ca116  1  0.63720800  0.74331170  0.22117400  1
  Ca  Ca117  1  0.86279200  0.24331170  0.27882600  1
  Ca  Ca118  1  0.36279200  0.25668830  0.77882600  1
  Ca  Ca119  1  0.13720800  0.75668830  0.72117400  1
