# generated using pymatgen
data_ZnH10C11N3O2
_symmetry_space_group_name_H-M   'P 1'
_cell_length_a   8.91379961
_cell_length_b   9.69348932
_cell_length_c   9.48360974
_cell_angle_alpha   90.00000000
_cell_angle_beta   115.89494442
_cell_angle_gamma   90.00000000
_symmetry_Int_Tables_number   1
_chemical_formula_structural   ZnH10C11N3O2
_chemical_formula_sum   'Zn4 H40 C44 N12 O8'
_cell_volume   737.16438628
_cell_formula_units_Z   4
loop_
 _symmetry_equiv_pos_site_id
 _symmetry_equiv_pos_as_xyz
  1  'x, y, z'
loop_
 _atom_site_type_symbol
 _atom_site_label
 _atom_site_symmetry_multiplicity
 _atom_site_fract_x
 _atom_site_fract_y
 _atom_site_fract_z
 _atom_site_occupancy
  Zn  Zn0  1  0.17587948  0.05771005  0.43678930  1
  Zn  Zn1  1  0.82411991  0.55771060  0.06320990  1
  Zn  Zn2  1  0.82411929  0.94229099  0.56320909  1
  Zn  Zn3  1  0.17587896  0.44229044  0.93678855  1
  N  N4  1  0.03079957  0.88920092  0.36829942  1
  N  N5  1  0.96919982  0.38920043  0.13169977  1
  N  N6  1  0.96919923  0.11080012  0.63169902  1
  N  N7  1  0.03079902  0.61080061  0.86829862  1
  N  N8  1  0.90779951  0.85250087  0.40999934  1
  N  N9  1  0.09219988  0.35250038  0.08999986  1
  N  N10  1  0.09219933  0.14750017  0.58999905  1
  N  N11  1  0.90779892  0.64750066  0.90999859  1
  N  N12  1  0.90079972  0.70860076  0.22589965  1
  N  N13  1  0.09919966  0.20860021  0.27409954  1
  N  N14  1  0.09919914  0.29140028  0.77409880  1
  N  N15  1  0.90079911  0.79140083  0.72589884  1
  O  O16  1  0.40979928  0.07610006  0.61019903  1
  O  O17  1  0.59019897  0.57610061  0.88979862  1
  O  O18  1  0.59019955  0.92390097  0.38979936  1
  O  O19  1  0.40979984  0.42390043  0.11019983  1
  O  O20  1  0.67529922  0.03070001  0.67319896  1
  O  O21  1  0.32469903  0.53070056  0.82679868  1
  O  O22  1  0.32469964  0.96930097  0.32679949  1
  O  O23  1  0.67529974  0.46930048  0.17319971  1
  C  C24  1  0.02149968  0.80170084  0.25879956  1
  C  C25  1  0.97849970  0.30170029  0.24119963  1
  C  C26  1  0.97849909  0.19830020  0.74119882  1
  C  C27  1  0.02149916  0.69830075  0.75879882  1
  H  H28  1  0.10514795  0.80711632  0.20341560  1
  H  H29  1  0.89485146  0.30711583  0.29658366  1
  H  H30  1  0.89485085  0.19288472  0.79658285  1
  H  H31  1  0.10514740  0.69288521  0.70341479  1
  C  C32  1  0.83449962  0.74460079  0.32319951  1
  C  C33  1  0.16549979  0.24460024  0.17679975  1
  C  C34  1  0.16549924  0.25540025  0.67679894  1
  C  C35  1  0.83449901  0.75540080  0.82319870  1
  H  H36  1  0.73075216  0.69074906  0.32953047  1
  H  H37  1  0.26924722  0.19074852  0.17046873  1
  H  H38  1  0.26924667  0.30925197  0.67046792  1
  H  H39  1  0.73075158  0.80925252  0.82952972  1
  C  C40  1  0.52479933  0.03080002  0.58149908  1
  C  C41  1  0.47519892  0.53080057  0.91849857  1
  C  C42  1  0.47519950  0.96920102  0.41849931  1
  C  C43  1  0.52479989  0.46920047  0.08149988  1
  C  C44  1  0.55000000  0.03076923  0.07812500  1
  C  C45  1  0.45808400  -0.06821723  0.03503937  1
  H  H46  1  0.63130505  0.11832852  0.11623674  1
  H  H47  1  0.37677894  -0.15577652  -0.00307237  1
  C  C48  1  0.55000000  0.03076923  0.07812500  1
  C  C49  1  0.55000000  0.06125159  -0.04570957  1
  H  H50  1  0.55000000  0.00380581  0.18766388  1
  H  H51  1  0.55000000  0.08821500  -0.15524845  1
  C  C52  1  0.55000000  0.46153846  0.57812500  1
  C  C53  1  0.44931750  0.55447615  0.53093008  1
  H  H54  1  0.63905953  0.37932967  0.61987165  1
  H  H55  1  0.36025798  0.63668495  0.48918343  1
  C  C56  1  0.55000000  0.46153846  0.57812500  1
  C  C57  1  0.53270881  0.42961627  0.44844110  1
  H  H58  1  0.56529506  0.48977550  0.69283796  1
  H  H59  1  0.51741375  0.40137924  0.33372815  1
  C  C60  1  0.43333333  0.52307692  0.40625000  1
  C  C61  1  0.45062452  0.55499911  0.53593390  1
  H  H62  1  0.41803827  0.49483989  0.29153704  1
  H  H63  1  0.46591958  0.58323615  0.65064685  1
  C  C64  1  0.43333333  0.52307692  0.40625000  1
  C  C65  1  0.53401583  0.43013924  0.45344492  1
  H  H66  1  0.34427380  0.60528572  0.36450335  1
  H  H67  1  0.62307536  0.34793044  0.49519157  1
  C  C68  1  0.43333333  0.95384615  0.90625000  1
  C  C69  1  0.45062452  0.92192396  1.03593390  1
  H  H70  1  0.41803827  0.98208319  0.79153704  1
  H  H71  1  0.46591958  0.89368693  1.15064685  1
  C  C72  1  0.43333333  0.95384615  0.90625000  1
  C  C73  1  0.53411988  1.04687989  0.94674459  1
  H  H74  1  0.34418177  0.87155240  0.87043017  1
  H  H75  1  0.62327144  1.12917364  0.98256442  1
  C  C76  1  0.55000000  0.06153846  0.95312500  1
  C  C77  1  0.44921346  -0.03149527  0.91263041  1
  H  H78  1  0.63915156  0.14383221  0.98894483  1
  H  H79  1  0.36006189  -0.11378902  0.87681058  1
  C  C80  1  0.55000000  0.06153846  0.95312500  1
  C  C81  1  0.55000000  0.03105611  1.07695957  1
  H  H82  1  0.55000000  0.08850188  0.84358612  1
  H  H83  1  0.55000000  0.00409269  1.18649845  1
  C  C84  1  0.53333333  0.43076923  0.45312500  1
  C  C85  1  0.43265084  0.52370692  0.40593008  1
  H  H86  1  0.62239286  0.34856044  0.49487165  1
  H  H87  1  0.34359131  0.60591571  0.36418343  1
  C  C88  1  0.53333333  0.43076923  0.45312500  1
  C  C89  1  0.55062452  0.46269142  0.58280890  1
  H  H90  1  0.51803827  0.40253220  0.33841204  1
  H  H91  1  0.56591958  0.49092846  0.69752185  1
  C  C92  1  0.45000000  0.55384615  0.53125000  1
  C  C93  1  0.43270881  0.52192396  0.40156610  1
  H  H94  1  0.46529506  0.58208319  0.64596296  1
  H  H95  1  0.41741375  0.49368693  0.28685315  1
  C  C96  1  0.45000000  0.55384615  0.53125000  1
  C  C97  1  0.55068250  0.46090847  0.57844492  1
  H  H98  1  0.36094047  0.63605495  0.48950335  1
  H  H99  1  0.63974202  0.37869967  0.62019157  1
  C  C100  1  0.45000000  0.92307692  0.03125000  1
  C  C101  1  0.43270881  0.95499911  -0.09843390  1
  H  H102  1  0.46529506  0.89483989  0.14596296  1
  H  H103  1  0.41741375  0.98323615  -0.21314685  1
  C  C104  1  0.45000000  0.92307692  0.03125000  1
  C  C105  1  0.54191600  1.02206339  0.07433563  1
  H  H106  1  0.36869495  0.83551763  -0.00686174  1
  H  H107  1  0.62322106  1.10962268  0.11244737  1
