# generated using pymatgen
data_Zn3PH7C8(N4O3)3
_symmetry_space_group_name_H-M   'P 1'
_cell_length_a   9.44700228
_cell_length_b   9.85799640
_cell_length_c   12.92901095
_cell_angle_alpha   108.51993088
_cell_angle_beta   94.92995600
_cell_angle_gamma   104.79996536
_symmetry_Int_Tables_number   1
_chemical_formula_structural   Zn3PH7C8(N4O3)3
_chemical_formula_sum   'Zn6 P2 H14 C16 N24 O18'
_cell_volume   1085.34139323
_cell_formula_units_Z   2
loop_
 _symmetry_equiv_pos_site_id
 _symmetry_equiv_pos_as_xyz
  1  'x, y, z'
loop_
 _atom_site_type_symbol
 _atom_site_label
 _atom_site_symmetry_multiplicity
 _atom_site_fract_x
 _atom_site_fract_y
 _atom_site_fract_z
 _atom_site_occupancy
  Zn  Zn0  1  0.27940904  0.64359949  0.26002957  1
  Zn  Zn1  1  0.72058822  0.35639830  0.73996880  1
  Zn  Zn2  1  0.88690895  0.56571954  0.23922961  1
  Zn  Zn3  1  0.11308837  0.43427827  0.76076881  1
  Zn  Zn4  1  0.10266902  0.19345891  0.47979923  1
  Zn  Zn5  1  0.89732831  0.80653889  0.52019919  1
  P  P6  1  0.13269873  0.87479925  0.37069940  1
  P  P7  1  0.86729853  0.12519853  0.62929897  1
  O  O8  1  0.01469900  0.76759947  0.27019958  1
  O  O9  1  0.98529827  0.23239833  0.72979884  1
  O  O10  1  0.28319873  0.84109927  0.35859942  1
  O  O11  1  0.71679853  0.15889852  0.64139896  1
  O  O12  1  0.15569926  0.03529911  0.37349939  1
  O  O13  1  0.84429800  0.96469867  0.62649899  1
  O  O14  1  0.08559859  0.85929898  0.47679924  1
  O  O15  1  0.91439873  0.14069882  0.52319918  1
  C  C16  1  0.19399958  0.50560003  0.00669998  1
  C  C17  1  0.80599768  0.49439775  0.99329840  1
  C  C18  1  0.22499934  0.73599996  0.07029990  1
  C  C19  1  0.77499793  0.26399784  0.92969852  1
  H  H20  1  0.24604910  0.84744977  0.13025977  1
  H  H21  1  0.75394814  0.15254796  0.86973861  1
  C  C22  1  0.57439867  0.72139917  0.40159935  1
  C  C23  1  0.42559864  0.27859861  0.59839903  1
  C  C24  1  0.57019904  0.56869954  0.24339963  1
  C  C25  1  0.42979823  0.43129827  0.75659879  1
  H  H26  1  0.53083924  0.49432971  0.15844973  1
  H  H27  1  0.46915802  0.50566808  0.84154865  1
  C  C28  1  0.96149881  0.36789917  0.36469941  1
  C  C29  1  0.03849844  0.63209861  0.63529897  1
  C  C30  1  0.19669903  0.41559920  0.36789941  1
  C  C31  1  0.80329829  0.58439860  0.63209901  1
  H  H32  1  0.30854895  0.40903914  0.38399939  1
  H  H33  1  0.69144831  0.59095861  0.61599903  1
  N  N34  1  0.23089935  0.62279984  0.10469982  1
  N  N35  1  0.76909796  0.37719794  0.89529855  1
  N  N36  1  0.17369800  0.54459794  0.92109855  1
  N  N37  1  0.82629932  0.45539986  0.07889987  1
  N  N38  1  0.18599781  0.69599783  0.96239845  1
  N  N39  1  0.81399950  0.30399995  0.03759992  1
  N  N40  1  0.20499969  0.37400007  0.00399999  1
  N  N41  1  0.79499758  0.62599774  0.99599843  1
  N  N42  1  0.48369891  0.63699938  0.30359950  1
  N  N43  1  0.51629840  0.36299840  0.69639887  1
  N  N44  1  0.71259864  0.70649916  0.40149934  1
  N  N45  1  0.28739868  0.29349862  0.59849903  1
  N  N46  1  0.70759889  0.60559940  0.29589953  1
  N  N47  1  0.29239844  0.39439840  0.70409889  1
  N  N48  1  0.53439845  0.80829894  0.49109923  1
  N  N49  1  0.46559881  0.19169881  0.50889919  1
  N  N50  1  0.14799909  0.49239935  0.31189950  1
  N  N51  1  0.85199818  0.50759846  0.68809892  1
  N  N52  1  0.99609887  0.46279935  0.31129952  1
  N  N53  1  0.00389846  0.53719846  0.68869890  1
  N  N54  1  0.08299905  0.33419908  0.40339934  1
  N  N55  1  0.91699821  0.66579870  0.59659904  1
  N  N56  1  0.82569885  0.31459912  0.38589939  1
  N  N57  1  0.17429840  0.68539863  0.61409903  1
  H  H58  1  0.81400870  0.34880895  0.46868924  1
  H  H59  1  0.18598856  0.65118884  0.53130914  1
  O  O60  1  0.38799849  0.72499888  0.52299917  1
  O  O61  1  0.61199878  0.27499892  0.47699925  1
  H  H62  1  0.30697957  0.37046995  0.03631993  1
  H  H63  1  0.69301768  0.62952783  0.96367845  1
  H  H64  1  0.14364810  0.28495782  0.93454850  1
  H  H65  1  0.85634915  0.71503992  0.06544992  1
  H  H66  1  0.73095902  0.27747928  0.31616948  1
  H  H67  1  0.27683832  0.66918853  0.65034894  1
  C  C68  1  0.39682540  0.01515152  0.81609195  1
  C  C69  1  0.57142857  0.93939394  0.11494253  1
  C  C70  1  0.07936508  0.09090909  0.13793103  1
  C  C71  1  0.88888889  0.89393939  0.85057471  1
  O  O72  1  0.38095238  0.12121212  0.82758621  1
  O  O73  1  0.58730159  0.81818182  0.11494253  1
  O  O74  1  0.55555556  0.06060606  0.11494253  1
  O  O75  1  0.42857143  0.90909091  0.81609195  1
  O  O76  1  0.01587302  0.96969697  0.86206897  1
  O  O77  1  0.95238095  0.03030303  0.13793103  1
  O  O78  1  0.20634921  0.15151515  0.14942529  1
  O  O79  1  0.77777778  0.83333333  0.83908046  1
