# generated using pymatgen
data_ZnH2C3(N2O)2
_symmetry_space_group_name_H-M   'P 1'
_cell_length_a   8.91381126
_cell_length_b   9.69348932
_cell_length_c   9.48360974
_cell_angle_alpha   90.00000000
_cell_angle_beta   115.89494442
_cell_angle_gamma   90.00000000
_symmetry_Int_Tables_number   1
_chemical_formula_structural   ZnH2C3(N2O)2
_chemical_formula_sum   'Zn4 H8 C12 N16 O8'
_cell_volume   737.16534905
_cell_formula_units_Z   4
loop_
 _symmetry_equiv_pos_site_id
 _symmetry_equiv_pos_as_xyz
  1  'x, y, z'
loop_
 _atom_site_type_symbol
 _atom_site_label
 _atom_site_symmetry_multiplicity
 _atom_site_fract_x
 _atom_site_fract_y
 _atom_site_fract_z
 _atom_site_occupancy
  Zn  Zn0  1  0.17587925  0.05771005  0.43678930  1
  Zn  Zn1  1  0.82411883  0.55771060  0.06320990  1
  Zn  Zn2  1  0.82411822  0.94229099  0.56320909  1
  Zn  Zn3  1  0.17587873  0.44229044  0.93678855  1
  N  N4  1  0.03079953  0.88920092  0.36829942  1
  N  N5  1  0.96919855  0.38920043  0.13169977  1
  N  N6  1  0.96919797  0.11080012  0.63169902  1
  N  N7  1  0.03079898  0.61080061  0.86829862  1
  N  N8  1  0.90779832  0.85250087  0.40999934  1
  N  N9  1  0.09219976  0.35250038  0.08999986  1
  N  N10  1  0.09219921  0.14750017  0.58999905  1
  N  N11  1  0.90779774  0.64750066  0.90999859  1
  N  N12  1  0.90079855  0.70860076  0.22589965  1
  N  N13  1  0.09919953  0.20860021  0.27409954  1
  N  N14  1  0.09919901  0.29140028  0.77409880  1
  N  N15  1  0.90079794  0.79140083  0.72589884  1
  O  O16  1  0.40979875  0.07610006  0.61019903  1
  O  O17  1  0.59019820  0.57610061  0.88979862  1
  O  O18  1  0.59019878  0.92390097  0.38979936  1
  O  O19  1  0.40979930  0.42390043  0.11019983  1
  O  O20  1  0.67529834  0.03070001  0.67319896  1
  O  O21  1  0.32469861  0.53070056  0.82679868  1
  O  O22  1  0.32469922  0.96930097  0.32679949  1
  O  O23  1  0.67529886  0.46930048  0.17319971  1
  C  C24  1  0.02149966  0.80170084  0.25879956  1
  C  C25  1  0.97849843  0.30170029  0.24119963  1
  C  C26  1  0.97849781  0.19830020  0.74119882  1
  C  C27  1  0.02149913  0.69830075  0.75879882  1
  H  H28  1  0.09319965  0.80450081  0.20859968  1
  H  H29  1  0.90679843  0.30450032  0.29139952  1
  H  H30  1  0.90679791  0.19550023  0.79139877  1
  H  H31  1  0.09319904  0.69550072  0.70859887  1
  C  C32  1  0.83449853  0.74460079  0.32319951  1
  C  C33  1  0.16549958  0.24460024  0.17679975  1
  C  C34  1  0.16549903  0.25540025  0.67679894  1
  C  C35  1  0.83449792  0.75540080  0.82319870  1
  H  H36  1  0.74409861  0.69710073  0.32889947  1
  H  H37  1  0.25589948  0.19710018  0.17109973  1
  H  H38  1  0.25589886  0.30290031  0.67109892  1
  H  H39  1  0.74409808  0.80290080  0.82889872  1
  C  C40  1  0.52479865  0.03080002  0.58149908  1
  C  C41  1  0.47519830  0.53080057  0.91849857  1
  C  C42  1  0.47519888  0.96920102  0.41849931  1
  C  C43  1  0.52479920  0.46920047  0.08149988  1
  N  N44  1  0.54098361  0.44615385  0.51562500  1
  N  N45  1  0.42622951  0.55384615  0.46875000  1
  N  N46  1  0.54098361  0.04615385  0.01562500  1
  N  N47  1  0.44262295  -0.06153846  -0.03125000  1
