# generated using pymatgen
data_ZnH3C4(NO)4
_symmetry_space_group_name_H-M   'P 1'
_cell_length_a   13.80339704
_cell_length_b   12.96391190
_cell_length_c   16.83184594
_cell_angle_alpha   90.00000000
_cell_angle_beta   90.00000000
_cell_angle_gamma   90.00000000
_symmetry_Int_Tables_number   1
_chemical_formula_structural   ZnH3C4(NO)4
_chemical_formula_sum   'Zn16 H48 C64 N64 O64'
_cell_volume   3011.99189454
_cell_formula_units_Z   16
loop_
 _symmetry_equiv_pos_site_id
 _symmetry_equiv_pos_as_xyz
  1  'x, y, z'
loop_
 _atom_site_type_symbol
 _atom_site_label
 _atom_site_symmetry_multiplicity
 _atom_site_fract_x
 _atom_site_fract_y
 _atom_site_fract_z
 _atom_site_occupancy
  Zn  Zn0  1  0.09259215  0.02386302  0.07603210  1
  Zn  Zn1  1  0.40740865  0.97613755  0.57603158  1
  Zn  Zn2  1  0.90740946  0.52386328  0.42396738  1
  Zn  Zn3  1  0.59259296  0.47613725  0.92396686  1
  Zn  Zn4  1  0.90740946  0.97613755  0.92396686  1
  Zn  Zn5  1  0.59259296  0.02386302  0.42396738  1
  Zn  Zn6  1  0.09259215  0.47613725  0.57603158  1
  Zn  Zn7  1  0.40740865  0.52386328  0.07603210  1
  Zn  Zn8  1  0.02199202  0.07359205  0.40385277  1
  Zn  Zn9  1  0.47800874  0.92640852  0.90385225  1
  Zn  Zn10  1  0.97800955  0.57359232  0.09614671  1
  Zn  Zn11  1  0.52199283  0.42640825  0.59614622  1
  Zn  Zn12  1  0.97800955  0.92640852  0.59614622  1
  Zn  Zn13  1  0.52199283  0.07359205  0.09614671  1
  Zn  Zn14  1  0.02199202  0.42640825  0.90385225  1
  Zn  Zn15  1  0.47800874  0.57359232  0.40385277  1
  C  C16  1  0.09028194  0.02782000  0.24606136  1
  C  C17  1  0.40971886  0.97218054  0.74606084  1
  C  C18  1  0.90971967  0.52782030  0.25393813  1
  C  C19  1  0.59028275  0.47218027  0.75393764  1
  C  C20  1  0.90971967  0.97218054  0.75393764  1
  C  C21  1  0.59028275  0.02782000  0.25393813  1
  C  C22  1  0.09028194  0.47218027  0.74606084  1
  C  C23  1  0.40971886  0.52782030  0.24606136  1
  C  C24  1  0.99300968  0.07732003  0.22252127  1
  C  C25  1  0.50699270  0.92268050  0.72252076  1
  C  C26  1  0.00699189  0.57732030  0.27747821  1
  C  C27  1  0.49300887  0.42268023  0.77747772  1
  C  C28  1  0.00699189  0.92268050  0.77747772  1
  C  C29  1  0.49300887  0.07732003  0.27747821  1
  C  C30  1  0.99300968  0.42268023  0.72252076  1
  C  C31  1  0.50699270  0.57732030  0.22252127  1
  O  O32  1  0.14482151  0.00000000  0.19134091  1
  O  O33  1  0.35517925  0.00069160  0.69134039  1
  O  O34  1  0.85518006  0.49930866  0.30865857  1
  O  O35  1  0.64482232  0.50069187  0.80865809  1
  O  O36  1  0.85518006  0.00069160  0.80865809  1
  O  O37  1  0.64482232  0.00000000  0.30865857  1
  O  O38  1  0.14482151  0.50069187  0.69134039  1
  O  O39  1  0.35517925  0.49930866  0.19134091  1
  O  O40  1  0.97688026  0.08394165  0.14959095  1
  O  O41  1  0.52312215  0.91605892  0.64959043  1
  O  O42  1  0.02312135  0.58394192  0.35040853  1
  O  O43  1  0.47687946  0.41605861  0.85040804  1
  O  O44  1  0.02312135  0.91605892  0.85040804  1
  O  O45  1  0.47687946  0.08394165  0.35040853  1
  O  O46  1  0.97688026  0.41605861  0.64959043  1
  O  O47  1  0.52312215  0.58394192  0.14959095  1
  O  O48  1  0.94098009  0.10575154  0.27868081  1
  O  O49  1  0.55902228  0.89424899  0.77868030  1
  O  O50  1  0.05902148  0.60575185  0.22131867  1
  O  O51  1  0.44097929  0.39424872  0.72131818  1
  O  O52  1  0.05902148  0.89424899  0.72131818  1
  O  O53  1  0.44097929  0.10575154  0.22131867  1
  O  O54  1  0.94098009  0.39424872  0.77868030  1
  O  O55  1  0.55902228  0.60575185  0.27868081  1
  O  O56  1  0.10861158  0.01752171  0.31847076  1
  O  O57  1  0.39138922  0.98247883  0.81847028  1
  O  O58  1  0.89139003  0.51752197  0.18152872  1
  O  O59  1  0.60861239  0.48247856  0.68152820  1
  O  O60  1  0.89139003  0.98247883  0.68152820  1
  O  O61  1  0.60861239  0.01752171  0.18152872  1
  O  O62  1  0.10861158  0.48247856  0.81847028  1
  O  O63  1  0.39138922  0.51752197  0.31847076  1
  C  C64  1  0.27964223  0.97208053  0.97992749  1
  C  C65  1  0.22035853  0.02792000  0.47992801  1
  C  C66  1  0.72035934  0.47208026  0.52007096  1
  C  C67  1  0.77964304  0.52792031  0.02007147  1
  C  C68  1  0.72035934  0.02792000  0.02007147  1
  C  C69  1  0.77964304  0.97208053  0.52007096  1
  C  C70  1  0.27964223  0.52792031  0.47992801  1
  C  C71  1  0.22035853  0.47208026  0.97992749  1
  C  C72  1  0.31180231  0.02892003  0.09413150  1
  C  C73  1  0.18819850  0.97108054  0.59413101  1
  C  C74  1  0.68819930  0.52892030  0.40586799  1
  C  C75  1  0.81180308  0.47108027  0.90586747  1
  C  C76  1  0.68819930  0.97108054  0.90586747  1
  C  C77  1  0.81180308  0.02892003  0.40586799  1
  C  C78  1  0.31180231  0.47108027  0.59413101  1
  C  C79  1  0.18819850  0.52892030  0.09413150  1
  H  H80  1  0.30489924  0.05595671  0.15466465  1
  H  H81  1  0.19568972  0.94425388  0.65465463  1
  H  H82  1  0.69510923  0.55594587  0.34533254  1
  H  H83  1  0.80489491  0.44404344  0.84533498  1
  H  H84  1  0.69569268  0.94425237  0.84534447  1
  H  H85  1  0.80489936  0.05595630  0.34533480  1
  H  H86  1  0.30489618  0.44404478  0.65466410  1
  H  H87  1  0.19510773  0.55594628  0.15466697  1
  C  C88  1  0.95208970  0.20212013  0.91062756  1
  C  C89  1  0.54791268  0.79788044  0.41062808  1
  C  C90  1  0.04791187  0.70212039  0.58937089  1
  C  C91  1  0.45208893  0.29788018  0.08937140  1
  C  C92  1  0.04791187  0.79788044  0.08937140  1
  C  C93  1  0.45208893  0.20212013  0.58937089  1
  C  C94  1  0.95208970  0.29788018  0.41062808  1
  C  C95  1  0.54791268  0.70212039  0.91062756  1
  C  C96  1  0.08105191  0.22212013  0.97696750  1
  C  C97  1  0.41894885  0.77788044  0.47696802  1
  C  C98  1  0.91894966  0.72212040  0.52303097  1
  C  C99  1  0.58105272  0.27788017  0.02303149  1
  C  C100  1  0.91894966  0.77788044  0.02303149  1
  C  C101  1  0.58105272  0.22212013  0.52303097  1
  C  C102  1  0.08105191  0.27788017  0.47696802  1
  C  C103  1  0.41894885  0.72212040  0.97696750  1
  H  H104  1  0.14642288  0.25485032  0.00248460  1
  H  H105  1  0.35358460  0.74512711  0.50247964  1
  H  H106  1  0.85357452  0.75484495  0.49751891  1
  H  H107  1  0.64734127  0.24563182  0.99891589  1
  H  H108  1  0.85267709  0.74560155  0.99891488  1
  H  H109  1  0.64642372  0.25485036  0.49751495  1
  H  H110  1  0.14643392  0.24515795  0.50247738  1
  H  H111  1  0.35357375  0.75484491  0.00248070  1
  N  N112  1  0.23659188  0.00498162  0.04715115  1
  N  N113  1  0.26340893  0.00000000  0.54715063  1
  N  N114  1  0.76340973  0.50498189  0.45284833  1
  N  N115  1  0.73659268  0.49501868  0.95284784  1
  N  N116  1  0.76340973  0.00000000  0.95284784  1
  N  N117  1  0.73659268  0.00498162  0.45284833  1
  N  N118  1  0.23659188  0.49501868  0.54715063  1
  N  N119  1  0.26340893  0.50498189  0.04715115  1
  N  N120  1  0.39595202  0.01294170  0.06052114  1
  N  N121  1  0.10404878  0.98705883  0.56052062  1
  N  N122  1  0.60404955  0.51294197  0.43947834  1
  N  N123  1  0.89595283  0.48705856  0.93947785  1
  N  N124  1  0.60404955  0.98705883  0.93947785  1
  N  N125  1  0.89595283  0.01294170  0.43947834  1
  N  N126  1  0.39595202  0.48705856  0.56052062  1
  N  N127  1  0.10404878  0.51294197  0.06052114  1
  N  N128  1  0.37605200  0.97503894  0.98502778  1
  N  N129  1  0.12394881  0.02496163  0.48502830  1
  N  N130  1  0.62394961  0.47503868  0.51497066  1
  N  N131  1  0.87605280  0.52496189  0.01497118  1
  N  N132  1  0.62394961  0.02496163  0.01497118  1
  N  N133  1  0.87605280  0.97503894  0.51497066  1
  N  N134  1  0.37605200  0.52496189  0.48502830  1
  N  N135  1  0.12394881  0.47503868  0.98502778  1
  N  N136  1  0.23089228  0.93348054  0.91663757  1
  N  N137  1  0.26910853  0.06652004  0.41663809  1
  N  N138  1  0.76910933  0.43348023  0.58336090  1
  N  N139  1  0.73089305  0.56652030  0.08336142  1
  N  N140  1  0.76910933  0.06652004  0.08336142  1
  N  N141  1  0.73089305  0.93348054  0.58336090  1
  N  N142  1  0.23089228  0.56652030  0.41663809  1
  N  N143  1  0.26910853  0.43348023  0.91663757  1
  H  H144  1  0.26693326  0.94018914  0.86376769  1
  H  H145  1  0.23319992  0.05971608  0.36372944  1
  H  H146  1  0.73306172  0.44017475  0.63623044  1
  H  H147  1  0.76693556  0.55979157  0.13623206  1
  H  H148  1  0.73320199  0.05969898  0.13627045  1
  H  H149  1  0.76693426  0.94018865  0.63623082  1
  H  H150  1  0.26693621  0.55980945  0.36376770  1
  H  H151  1  0.23306107  0.44017528  0.86376810  1
  H  H152  1  0.15713205  0.94222786  0.91391901  1
  H  H153  1  0.34286599  0.05781562  0.41399095  1
  H  H154  1  0.84287370  0.44220347  0.58607975  1
  H  H155  1  0.65712925  0.55778502  0.08608043  1
  H  H156  1  0.84286795  0.05781611  0.08600840  1
  H  H157  1  0.65713278  0.94222937  0.58607887  1
  H  H158  1  0.15712948  0.55778416  0.41391887  1
  H  H159  1  0.34287305  0.44220200  0.91391806  1
  N  N160  1  0.05337160  0.12709177  0.99092779  1
  N  N161  1  0.44662920  0.87290876  0.49092831  1
  N  N162  1  0.94663001  0.62709203  0.50907068  1
  N  N163  1  0.55337237  0.37290850  0.00907120  1
  N  N164  1  0.94663001  0.87290876  0.00907120  1
  N  N165  1  0.55337237  0.12709177  0.50907068  1
  N  N166  1  0.05337160  0.37290850  0.49092831  1
  N  N167  1  0.44662920  0.62709203  0.99092779  1
  N  N168  1  0.96835015  0.11321167  0.94773783  1
  N  N169  1  0.53165223  0.88678890  0.44773835  1
  N  N170  1  0.03165146  0.61321194  0.55226064  1
  N  N171  1  0.46834934  0.38678860  0.05226116  1
  N  N172  1  0.03165146  0.88678890  0.05226116  1
  N  N173  1  0.46834934  0.11321167  0.55226064  1
  N  N174  1  0.96835015  0.38678860  0.44773835  1
  N  N175  1  0.53165223  0.61321194  0.94773783  1
  N  N176  1  0.02141153  0.27342177  0.92712775  1
  N  N177  1  0.47858928  0.72657880  0.42712826  1
  N  N178  1  0.97859004  0.77342204  0.57287073  1
  N  N179  1  0.52141233  0.22657853  0.07287122  1
  N  N180  1  0.97859004  0.72657880  0.07287122  1
  N  N181  1  0.52141233  0.27342177  0.57287073  1
  N  N182  1  0.02141153  0.22657853  0.42712826  1
  N  N183  1  0.47858928  0.77342204  0.92712775  1
  N  N184  1  0.87339948  0.22102014  0.86439751  1
  N  N185  1  0.62660290  0.77898044  0.36439803  1
  N  N186  1  0.12660209  0.72102040  0.63560097  1
  N  N187  1  0.37339871  0.27898017  0.13560146  1
  N  N188  1  0.12660209  0.77898044  0.13560146  1
  N  N189  1  0.37339871  0.22102014  0.63560097  1
  N  N190  1  0.87339948  0.27898017  0.36439803  1
  N  N191  1  0.62660290  0.72102040  0.86439751  1
  H  H192  1  0.88322522  0.27758480  0.82245348  1
  H  H193  1  0.61677965  0.72240226  0.32245481  1
  H  H194  1  0.11676623  0.77757785  0.67755660  1
  H  H195  1  0.38323354  0.22240917  0.17754948  1
  H  H196  1  0.11676788  0.72241185  0.17755073  1
  H  H197  1  0.38322967  0.27758207  0.67754691  1
  H  H198  1  0.88322338  0.22239962  0.32245610  1
  H  H199  1  0.61677221  0.77758062  0.82244383  1
  H  H200  1  0.83788950  0.15658045  0.84471528  1
  H  H201  1  0.66205391  0.84342616  0.34464321  1
  H  H202  1  0.16201335  0.65656068  0.65538157  1
  H  H203  1  0.33795226  0.34342157  0.15536756  1
  H  H204  1  0.16207477  0.84341677  0.15534615  1
  H  H205  1  0.33790020  0.15657523  0.65528807  1
  H  H206  1  0.83797480  0.34343087  0.34462183  1
  H  H207  1  0.66202574  0.65656586  0.84462181  1
  C  C208  1  0.33333333  0.28735632  0.36283186  1
  C  C209  1  0.65591398  0.70114943  0.62831858  1
  C  C210  1  0.83870968  0.28735632  0.13274336  1
  C  C211  1  0.65591398  0.79310345  0.13274336  1
  C  C212  1  0.15053763  0.70114943  0.85840708  1
  C  C213  1  0.83870968  0.19540230  0.62831858  1
  C  C214  1  0.15053763  0.79310345  0.36283186  1
  C  C215  1  0.34408602  0.19540230  0.85840708  1
  C  C216  1  0.38709677  0.79310345  0.19469027  1
  C  C217  1  0.10752688  0.28735632  0.20353982  1
  C  C218  1  0.60215054  0.19540230  0.79646018  1
  C  C219  1  0.88172043  0.70114943  0.79646018  1
  C  C220  1  0.88172043  0.79310345  0.29203540  1
  C  C221  1  0.10752688  0.19540230  0.69911504  1
  C  C222  1  0.38709677  0.70114943  0.69911504  1
  C  C223  1  0.60215054  0.28735632  0.29203540  1
  O  O224  1  0.77419355  0.28735632  0.16814159  1
  O  O225  1  0.21505376  0.70114943  0.82300885  1
  O  O226  1  0.72043011  0.78160920  0.16814159  1
  O  O227  1  0.26881720  0.28735632  0.31858407  1
  O  O228  1  0.26881720  0.20689655  0.82300885  1
  O  O229  1  0.72043011  0.70114943  0.67256637  1
  O  O230  1  0.21505376  0.78160920  0.31858407  1
  O  O231  1  0.77419355  0.20689655  0.67256637  1
  O  O232  1  0.90322581  0.29885057  0.09734513  1
  O  O233  1  0.90322581  0.18390805  0.59292035  1
  O  O234  1  0.08602151  0.80459770  0.39823009  1
  O  O235  1  0.08602151  0.68965517  0.89380531  1
  O  O236  1  0.58064516  0.68965517  0.59292035  1
  O  O237  1  0.40860215  0.29885057  0.39823009  1
  O  O238  1  0.58064516  0.80459770  0.09734513  1
  O  O239  1  0.93548387  0.83908046  0.24778761  1
  O  O240  1  0.05376344  0.33333333  0.23893805  1
  O  O241  1  0.40860215  0.18390805  0.89380531  1
  O  O242  1  0.06451613  0.14942529  0.74336283  1
  O  O243  1  0.93548387  0.65517241  0.75221239  1
  O  O244  1  0.43010753  0.65517241  0.74336283  1
  O  O245  1  0.43010753  0.83908046  0.23893805  1
  O  O246  1  0.55913978  0.33333333  0.24778761  1
  O  O247  1  0.55913978  0.14942529  0.75221239  1
  O  O248  1  0.64516129  0.25287356  0.83185841  1
  O  O249  1  0.34408602  0.73563218  0.15929204  1
  O  O250  1  0.34408602  0.74712644  0.65486726  1
  O  O251  1  0.64516129  0.24137931  0.33628319  1
  O  O252  1  0.83870968  0.74712644  0.83185841  1
  O  O253  1  0.83870968  0.73563218  0.33628319  1
  O  O254  1  0.15053763  0.24137931  0.15929204  1
  O  O255  1  0.15053763  0.25287356  0.65486726  1
