# generated using pymatgen
data_Ca2H16C28S2XeO12
_symmetry_space_group_name_H-M   'P 1'
_cell_length_a   11.61935039
_cell_length_b   5.56672094
_cell_length_c   22.93116637
_cell_angle_alpha   90.00000000
_cell_angle_beta   100.89736241
_cell_angle_gamma   90.00000000
_symmetry_Int_Tables_number   1
_chemical_formula_structural   Ca2H16C28S2XeO12
_chemical_formula_sum   'Ca4 H32 C56 S4 Xe2 O24'
_cell_volume   1456.47998825
_cell_formula_units_Z   2
loop_
 _symmetry_equiv_pos_site_id
 _symmetry_equiv_pos_as_xyz
  1  'x, y, z'
loop_
 _atom_site_type_symbol
 _atom_site_label
 _atom_site_symmetry_multiplicity
 _atom_site_fract_x
 _atom_site_fract_y
 _atom_site_fract_z
 _atom_site_occupancy
  C  C0  1  0.49324964  0.25868996  0.26202047  1
  C  C1  1  0.00674969  0.75868987  0.23798042  1
  C  C2  1  0.50674901  0.74130987  0.73798131  1
  C  C3  1  0.99324896  0.24130996  0.76202135  1
  C  C4  1  0.39984959  0.21110996  0.29912053  1
  C  C5  1  0.10014973  0.71110988  0.20088036  1
  C  C6  1  0.60014906  0.78888987  0.70088124  1
  C  C7  1  0.89984892  0.28888995  0.79912142  1
  C  C8  1  0.31214959  0.37890994  0.30012053  1
  C  C9  1  0.18784973  0.87890985  0.19988036  1
  C  C10  1  0.68784905  0.62108989  0.69988124  1
  C  C11  1  0.81214892  0.12108998  0.80012142  1
  H  H12  1  0.31419962  0.52869991  0.28040050  1
  H  H13  1  0.18579970  0.02870000  0.21960039  1
  H  H14  1  0.68579903  0.47129992  0.71960128  1
  H  H15  1  0.81419894  0.97129984  0.78040139  1
  C  C16  1  0.22084956  0.32821094  0.32992059  1
  C  C17  1  0.27914977  0.82821086  0.17008030  1
  C  C18  1  0.77914909  0.67178889  0.67008119  1
  C  C19  1  0.72084888  0.17178897  0.82992147  1
  H  H20  1  0.15969956  0.44129993  0.33040059  1
  H  H21  1  0.34029976  0.94129984  0.16960030  1
  H  H22  1  0.84029909  0.55869991  0.66960119  1
  H  H23  1  0.65969888  0.05869999  0.83040147  1
  C  C24  1  0.22094952  0.10960998  0.35892064  1
  C  C25  1  0.27904980  0.60960990  0.14108025  1
  C  C26  1  0.77904913  0.89038985  0.64108114  1
  C  C27  1  0.72094884  0.39038993  0.85892153  1
  C  C28  1  0.31094951  0.94128984  0.36032064  1
  C  C29  1  0.18904981  0.44128993  0.13968025  1
  C  C30  1  0.68904913  0.05870999  0.63968114  1
  C  C31  1  0.81094884  0.55870991  0.86032153  1
  H  H32  1  0.31099949  0.79579987  0.38200068  1
  H  H33  1  0.18899984  0.29579995  0.11800021  1
  H  H34  1  0.68899916  0.20419997  0.61800110  1
  H  H35  1  0.81099881  0.70419988  0.88200157  1
  C  C36  1  0.40024955  0.99118983  0.32932058  1
  C  C37  1  0.09974977  0.49118992  0.17068030  1
  C  C38  1  0.59974910  0.00881000  0.67068119  1
  C  C39  1  0.90024888  0.50880991  0.82932147  1
  H  H40  1  0.46089955  0.87769985  0.32860058  1
  H  H41  1  0.03909977  0.37769994  0.17140030  1
  H  H42  1  0.53909910  0.12229998  0.67140119  1
  H  H43  1  0.96089888  0.62229989  0.82860147  1
  C  C44  1  0.14903938  0.11190998  0.47022084  1
  C  C45  1  0.35095995  0.61190990  0.02978005  1
  C  C46  1  0.85095927  0.88808985  0.52978094  1
  C  C47  1  0.64903870  0.38808993  0.97022172  1
  C  C48  1  0.11944935  0.33400994  0.49012087  1
  C  C49  1  0.38054997  0.83400986  0.00988002  1
  C  C50  1  0.88054930  0.66598989  0.50988091  1
  C  C51  1  0.61944867  0.16598997  0.99012176  1
  H  H52  1  0.08029939  0.45019992  0.46300082  1
  H  H53  1  0.41969994  0.95019984  0.03700007  1
  H  H54  1  0.91969926  0.54979991  0.53700095  1
  H  H55  1  0.58029871  0.04979999  0.96300171  1
  C  C56  1  0.14824927  0.38370994  0.55082098  1
  C  C57  1  0.35174874  0.88370985  0.94918169  1
  C  C58  1  0.85174938  0.61628990  0.44918080  1
  C  C59  1  0.64824991  0.11628998  0.05082009  1
  H  H60  1  0.12979925  0.53609991  0.56520100  1
  H  H61  1  0.37019876  0.03609999  0.93480166  1
  H  H62  1  0.87019940  0.46389992  0.43480077  1
  H  H63  1  0.62979989  0.96389984  0.06520012  1
  C  C64  1  0.20364922  0.21140996  0.59002105  1
  C  C65  1  0.29634879  0.71140988  0.90998162  1
  C  C66  1  0.79634943  0.78858987  0.40998073  1
  C  C67  1  0.70364986  0.28858995  0.09002016  1
  C  C68  1  0.23674924  0.99048983  0.56932101  1
  C  C69  1  0.26324876  0.49048992  0.93068165  1
  C  C70  1  0.76324941  0.00951000  0.43068076  1
  C  C71  1  0.73674988  0.50950991  0.06932012  1
  H  H72  1  0.27749920  0.87589985  0.59620106  1
  H  H73  1  0.22249880  0.37589994  0.90380161  1
  H  H74  1  0.72249944  0.12409998  0.40380072  1
  H  H75  1  0.77749985  0.62409989  0.09620017  1
  C  C76  1  0.20954932  0.93978984  0.50882090  1
  C  C77  1  0.29044868  0.43978993  0.99118176  1
  C  C78  1  0.79044933  0.06020999  0.49118087  1
  C  C79  1  0.70954996  0.56020991  0.00882002  1
  H  H80  1  0.23169934  0.79099987  0.49390088  1
  H  H81  1  0.26829998  0.29099995  0.00610001  1
  H  H82  1  0.76829931  0.20899996  0.50610090  1
  H  H83  1  0.73169867  0.70899988  0.99390177  1
  C  C84  1  0.22753913  0.26248996  0.65572116  1
  C  C85  1  0.27245888  0.76248987  0.84428150  1
  C  C86  1  0.77245952  0.73750988  0.34428061  1
  C  C87  1  0.72753977  0.23750996  0.15572028  1
  O  O88  1  0.51242965  0.47556992  0.25221205  1
  O  O89  1  0.98756964  0.97556983  0.24778884  1
  O  O90  1  0.48756900  0.52442991  0.74778973  1
  O  O91  1  0.01242901  0.02443000  0.75221294  1
  O  O92  1  0.54092966  0.08086999  0.24372203  1
  O  O93  1  0.95906963  0.58086990  0.25627886  1
  O  O94  1  0.45906899  0.91912984  0.75627974  1
  O  O95  1  0.04092902  0.41912993  0.74372292  1
  O  O96  1  0.00542951  0.19586997  0.37124216  1
  O  O97  1  0.49456981  0.69586988  0.12875873  1
  O  O98  1  0.99456914  0.80412986  0.62875962  1
  O  O99  1  0.50542883  0.30412995  0.87124305  1
  O  O100  1  0.08662948  0.77952987  0.39054229  1
  O  O101  1  0.41336984  0.27952995  0.10945859  1
  O  O102  1  0.91336917  0.22046996  0.60945948  1
  O  O103  1  0.58662881  0.72046988  0.89054318  1
  O  O104  1  0.23712911  0.47686992  0.67265279  1
  O  O105  1  0.26286890  0.97686983  0.82734987  1
  O  O106  1  0.76286954  0.52312991  0.32734898  1
  O  O107  1  0.73712975  0.02313000  0.17265191  1
  O  O108  1  0.24062908  0.08506999  0.69066283  1
  O  O109  1  0.25936892  0.58506990  0.80933984  1
  O  O110  1  0.75936957  0.91492985  0.30933895  1
  O  O111  1  0.74062972  0.41492993  0.19066194  1
  S  S112  1  0.10323058  0.03641999  0.39414570  1
  S  S113  1  0.39676875  0.53641991  0.10585519  1
  S  S114  1  0.89676807  0.96357984  0.60585608  1
  S  S115  1  0.60322990  0.46357992  0.89414659  1
  Ca  Ca116  1  0.63720769  0.74331157  0.22117439  1
  Ca  Ca117  1  0.86279160  0.24331166  0.27882650  1
  Ca  Ca118  1  0.36279096  0.25668826  0.77882738  1
  Ca  Ca119  1  0.13720704  0.75668817  0.72117528  1
  Xe  Xe120  1  0.00000000  0.00000000  0.00000000  1
  Xe  Xe121  1  0.50000000  0.50000000  0.50326797  1
