# generated using pymatgen
data_ZnH2C4N3O4
_symmetry_space_group_name_H-M   'P 1'
_cell_length_a   8.91379961
_cell_length_b   9.69348932
_cell_length_c   9.48360974
_cell_angle_alpha   90.00000000
_cell_angle_beta   115.89494442
_cell_angle_gamma   90.00000000
_symmetry_Int_Tables_number   1
_chemical_formula_structural   ZnH2C4N3O4
_chemical_formula_sum   'Zn4 H8 C16 N12 O16'
_cell_volume   737.16438628
_cell_formula_units_Z   4
loop_
 _symmetry_equiv_pos_site_id
 _symmetry_equiv_pos_as_xyz
  1  'x, y, z'
loop_
 _atom_site_type_symbol
 _atom_site_label
 _atom_site_symmetry_multiplicity
 _atom_site_fract_x
 _atom_site_fract_y
 _atom_site_fract_z
 _atom_site_occupancy
  Zn  Zn0  1  0.17587948  0.05771005  0.43678930  1
  Zn  Zn1  1  0.82411991  0.55771060  0.06320990  1
  Zn  Zn2  1  0.82411929  0.94229099  0.56320909  1
  Zn  Zn3  1  0.17587896  0.44229044  0.93678855  1
  N  N4  1  0.03079957  0.88920092  0.36829942  1
  N  N5  1  0.96919982  0.38920043  0.13169977  1
  N  N6  1  0.96919923  0.11080012  0.63169902  1
  N  N7  1  0.03079902  0.61080061  0.86829862  1
  N  N8  1  0.90779951  0.85250087  0.40999934  1
  N  N9  1  0.09219988  0.35250038  0.08999986  1
  N  N10  1  0.09219933  0.14750017  0.58999905  1
  N  N11  1  0.90779892  0.64750066  0.90999859  1
  N  N12  1  0.90079972  0.70860076  0.22589965  1
  N  N13  1  0.09919966  0.20860021  0.27409954  1
  N  N14  1  0.09919914  0.29140028  0.77409880  1
  N  N15  1  0.90079911  0.79140083  0.72589884  1
  O  O16  1  0.40979928  0.07610006  0.61019903  1
  O  O17  1  0.59019897  0.57610061  0.88979862  1
  O  O18  1  0.59019955  0.92390097  0.38979936  1
  O  O19  1  0.40979984  0.42390043  0.11019983  1
  O  O20  1  0.67529922  0.03070001  0.67319896  1
  O  O21  1  0.32469903  0.53070056  0.82679868  1
  O  O22  1  0.32469964  0.96930097  0.32679949  1
  O  O23  1  0.67529974  0.46930048  0.17319971  1
  C  C24  1  0.02149968  0.80170084  0.25879956  1
  C  C25  1  0.97849970  0.30170029  0.24119963  1
  C  C26  1  0.97849909  0.19830020  0.74119882  1
  C  C27  1  0.02149916  0.69830075  0.75879882  1
  H  H28  1  0.09319977  0.80450081  0.20859968  1
  H  H29  1  0.90679962  0.30450032  0.29139952  1
  H  H30  1  0.90679909  0.19550023  0.79139877  1
  H  H31  1  0.09319916  0.69550072  0.70859887  1
  C  C32  1  0.83449962  0.74460079  0.32319951  1
  C  C33  1  0.16549979  0.24460024  0.17679975  1
  C  C34  1  0.16549924  0.25540025  0.67679894  1
  C  C35  1  0.83449901  0.75540080  0.82319870  1
  H  H36  1  0.74409958  0.69710073  0.32889947  1
  H  H37  1  0.25589981  0.19710018  0.17109973  1
  H  H38  1  0.25589920  0.30290031  0.67109892  1
  H  H39  1  0.74409905  0.80290080  0.82889872  1
  C  C40  1  0.52479933  0.03080002  0.58149908  1
  C  C41  1  0.47519892  0.53080057  0.91849857  1
  C  C42  1  0.47519950  0.96920102  0.41849931  1
  C  C43  1  0.52479989  0.46920047  0.08149988  1
  C  C44  1  0.48333333  0.49230769  0.48437500  1
  O  O45  1  0.44271081  0.37981454  0.48437500  1
  O  O46  1  0.52395586  0.60480085  0.48437500  1
  C  C47  1  0.48333333  0.49230769  0.48437500  1
  O  O48  1  0.61865519  0.46107957  0.51609106  1
  O  O49  1  0.34801147  0.52353581  0.45265894  1
  C  C50  1  0.48333333  0.98461538  0.00000000  1
  O  O51  1  0.44779629  1.09942736  -0.01665799  1
  O  O52  1  0.51887037  0.86980341  0.01665799  1
  C  C53  1  0.48333333  0.98461538  0.00000000  1
  O  O54  1  0.34375521  0.96620948  -0.03738700  1
  O  O55  1  0.62291146  1.00302129  0.03738700  1
